  
       XFOIL         Version 6.99
  
 Calculated polar for: NACA 2412                                       
  
 1 1 Reynolds number fixed          Mach number fixed         
  
 xtrf =   1.000 (top)        1.000 (bottom)  
 Mach =   0.000     Re =     3.100 e 6     Ncrit =   9.000
  
   alpha    CL        CD       CDp       CM     Top_Xtr  Bot_Xtr
  ------ -------- --------- --------- -------- -------- --------
  -8.000  -0.6524   0.00849   0.00380  -0.0538   0.9394   0.0226
  -7.500  -0.5980   0.00814   0.00341  -0.0535   0.9251   0.0247
  -7.000  -0.5431   0.00781   0.00305  -0.0532   0.9094   0.0274
  -6.500  -0.4878   0.00749   0.00271  -0.0530   0.8926   0.0315
  -6.000  -0.4322   0.00720   0.00240  -0.0529   0.8734   0.0363
  -5.500  -0.3764   0.00695   0.00212  -0.0527   0.8518   0.0425
  -5.000  -0.3206   0.00674   0.00187  -0.0526   0.8276   0.0503
  -4.500  -0.2643   0.00654   0.00165  -0.0526   0.8023   0.0604
  -4.000  -0.2082   0.00635   0.00145  -0.0525   0.7741   0.0750
  -3.500  -0.1520   0.00620   0.00128  -0.0525   0.7443   0.0929
  -3.000  -0.0958   0.00605   0.00113  -0.0524   0.7126   0.1172
  -1.500   0.0732   0.00571   0.00085  -0.0525   0.6156   0.2238
  -1.000   0.1296   0.00563   0.00081  -0.0526   0.5834   0.2706
  -0.500   0.1861   0.00555   0.00079  -0.0527   0.5531   0.3238
   0.000   0.2424   0.00546   0.00079  -0.0528   0.5243   0.3870
   0.500   0.2982   0.00531   0.00081  -0.0528   0.4972   0.4809
   1.000   0.3541   0.00519   0.00086  -0.0528   0.4720   0.5728
   1.500   0.4101   0.00513   0.00094  -0.0528   0.4475   0.6538
   2.500   0.5208   0.00507   0.00115  -0.0524   0.3958   0.8139
   3.000   0.5743   0.00515   0.00130  -0.0518   0.3622   0.8862
   3.500   0.6253   0.00537   0.00150  -0.0506   0.3224   0.9424
   4.000   0.6778   0.00569   0.00172  -0.0497   0.2818   0.9764
   4.500   0.7377   0.00615   0.00197  -0.0508   0.2348   0.9920
   5.000   0.8047   0.00674   0.00231  -0.0535   0.1828   0.9976
   5.500   0.8651   0.00733   0.00268  -0.0548   0.1384   1.0000
   6.000   0.9114   0.00786   0.00303  -0.0530   0.1061   1.0000
   6.500   0.9594   0.00838   0.00342  -0.0515   0.0810   1.0000
   7.000   1.0093   0.00889   0.00382  -0.0504   0.0630   1.0000
   7.500   1.0594   0.00944   0.00426  -0.0495   0.0491   1.0000
   8.000   1.1101   0.00994   0.00471  -0.0487   0.0403   1.0000
   8.500   1.1605   0.01046   0.00518  -0.0479   0.0337   1.0000
   9.000   1.2103   0.01101   0.00569  -0.0470   0.0287   1.0000
   9.500   1.2593   0.01160   0.00625  -0.0460   0.0246   1.0000
  10.000   1.3080   0.01218   0.00682  -0.0450   0.0220   1.0000
  10.500   1.3557   0.01278   0.00743  -0.0438   0.0198   1.0000
  11.000   1.4014   0.01350   0.00814  -0.0424   0.0175   1.0000
  11.500   1.4469   0.01415   0.00881  -0.0410   0.0164   1.0000
  12.000   1.4895   0.01495   0.00961  -0.0392   0.0148   1.0000
  12.500   1.5303   0.01576   0.01046  -0.0371   0.0138   1.0000
  13.000   1.5669   0.01658   0.01131  -0.0343   0.0131   1.0000
  13.500   1.5973   0.01760   0.01237  -0.0306   0.0122   1.0000
  14.000   1.6252   0.01883   0.01366  -0.0269   0.0114   1.0000
  14.500   1.6546   0.02003   0.01493  -0.0237   0.0110   1.0000
  15.000   1.6809   0.02150   0.01646  -0.0206   0.0105   1.0000
  15.500   1.7034   0.02333   0.01836  -0.0175   0.0100   1.0000
  16.000   1.7198   0.02577   0.02089  -0.0143   0.0093   1.0000
  16.500   1.7355   0.02848   0.02371  -0.0118   0.0090   1.0000
  17.000   1.7512   0.03141   0.02675  -0.0099   0.0089   1.0000
  17.500   1.7624   0.03499   0.03044  -0.0084   0.0087   1.0000
  18.000   1.7689   0.03926   0.03483  -0.0074   0.0084   1.0000
  18.500   1.7703   0.04440   0.04011  -0.0071   0.0082   1.0000
  19.000   1.7656   0.05058   0.04642  -0.0075   0.0080   1.0000
  19.500   1.7543   0.05797   0.05397  -0.0088   0.0078   1.0000
  20.000   1.7343   0.06678   0.06296  -0.0109   0.0076   1.0000
