  
       XFOIL         Version 6.99
  
 Calculated polar for: NACA 2412                                       
  
 1 1 Reynolds number fixed          Mach number fixed         
  
 xtrf =   1.000 (top)        1.000 (bottom)  
 Mach =   0.000     Re =     8.900 e 6     Ncrit =   9.000
  
   alpha    CL        CD       CDp       CM     Top_Xtr  Bot_Xtr
  ------ -------- --------- --------- -------- -------- --------
  -8.000  -0.6678   0.00709   0.00284  -0.0508   0.8553   0.0175
  -7.500  -0.6118   0.00684   0.00255  -0.0508   0.8331   0.0194
  -7.000  -0.5554   0.00662   0.00229  -0.0508   0.8092   0.0217
  -6.500  -0.4989   0.00644   0.00206  -0.0509   0.7827   0.0235
  -6.000  -0.4422   0.00624   0.00184  -0.0510   0.7561   0.0274
  -5.500  -0.3855   0.00609   0.00164  -0.0511   0.7266   0.0317
  -5.000  -0.3286   0.00595   0.00146  -0.0512   0.6960   0.0368
  -4.500  -0.2716   0.00584   0.00130  -0.0513   0.6653   0.0435
  -4.000  -0.2145   0.00573   0.00116  -0.0514   0.6350   0.0514
  -3.500  -0.1573   0.00564   0.00104  -0.0516   0.6042   0.0613
  -3.000  -0.1001   0.00554   0.00093  -0.0518   0.5747   0.0776
  -2.500  -0.0428   0.00547   0.00085  -0.0520   0.5454   0.0936
  -2.000   0.0144   0.00540   0.00078  -0.0521   0.5165   0.1175
  -1.500   0.0718   0.00532   0.00072  -0.0524   0.4933   0.1449
  -1.000   0.1292   0.00527   0.00069  -0.0526   0.4683   0.1741
  -0.500   0.1867   0.00521   0.00067  -0.0528   0.4477   0.2094
   0.000   0.2442   0.00516   0.00067  -0.0531   0.4279   0.2451
   0.500   0.3014   0.00515   0.00069  -0.0533   0.4042   0.2878
   1.000   0.3586   0.00514   0.00072  -0.0535   0.3804   0.3341
   1.500   0.4152   0.00517   0.00078  -0.0537   0.3496   0.3889
   2.000   0.4712   0.00520   0.00087  -0.0537   0.3147   0.4649
   2.500   0.5269   0.00528   0.00100  -0.0537   0.2769   0.5388
   3.000   0.5825   0.00542   0.00114  -0.0537   0.2398   0.6019
   3.500   0.6374   0.00562   0.00133  -0.0536   0.1999   0.6663
   4.000   0.6922   0.00582   0.00153  -0.0535   0.1639   0.7333
   4.500   0.7463   0.00606   0.00178  -0.0532   0.1284   0.8010
   5.000   0.8001   0.00629   0.00203  -0.0528   0.0994   0.8698
   5.500   0.8525   0.00654   0.00232  -0.0521   0.0769   0.9303
   6.000   0.9027   0.00681   0.00259  -0.0508   0.0615   0.9756
   6.500   0.9606   0.00718   0.00289  -0.0514   0.0477   0.9957
   7.000   1.0228   0.00757   0.00320  -0.0530   0.0391   1.0000
   7.500   1.0743   0.00795   0.00352  -0.0522   0.0323   1.0000
   8.000   1.1267   0.00833   0.00385  -0.0517   0.0275   1.0000
   8.500   1.1791   0.00872   0.00420  -0.0512   0.0238   1.0000
   9.000   1.2311   0.00915   0.00458  -0.0506   0.0203   1.0000
   9.500   1.2825   0.00960   0.00500  -0.0500   0.0178   1.0000
  10.000   1.3340   0.01002   0.00540  -0.0494   0.0164   1.0000
  10.500   1.3839   0.01054   0.00589  -0.0486   0.0141   1.0000
  11.000   1.4339   0.01101   0.00635  -0.0479   0.0134   1.0000
  11.500   1.4821   0.01159   0.00691  -0.0468   0.0118   1.0000
  12.000   1.5301   0.01212   0.00744  -0.0458   0.0112   1.0000
  12.500   1.5766   0.01272   0.00803  -0.0446   0.0105   1.0000
  13.000   1.6205   0.01343   0.00873  -0.0429   0.0093   1.0000
  13.500   1.6640   0.01407   0.00938  -0.0413   0.0090   1.0000
  14.000   1.7051   0.01477   0.01009  -0.0392   0.0086   1.0000
  14.500   1.7388   0.01557   0.01091  -0.0359   0.0082   1.0000
  15.000   1.7678   0.01654   0.01191  -0.0320   0.0075   1.0000
  15.500   1.7963   0.01762   0.01303  -0.0284   0.0071   1.0000
  16.000   1.8251   0.01876   0.01420  -0.0252   0.0070   1.0000
  16.500   1.8512   0.02013   0.01562  -0.0220   0.0068   1.0000
  17.000   1.8748   0.02178   0.01733  -0.0189   0.0066   1.0000
  17.500   1.8946   0.02382   0.01942  -0.0160   0.0064   1.0000
  18.000   1.9101   0.02635   0.02201  -0.0132   0.0061   1.0000
  18.500   1.9212   0.02947   0.02520  -0.0108   0.0056   1.0000
  19.000   1.9290   0.03312   0.02895  -0.0089   0.0053   1.0000
  19.500   1.9362   0.03711   0.03303  -0.0077   0.0053   1.0000
  20.000   1.9401   0.04174   0.03775  -0.0071   0.0053   1.0000
